* NGSPICE file created from cpu_top.ext - technology: sky130A

* Black-box entry subcircuit for sky130_fd_sc_hd__decap_6 abstract view
.subckt sky130_fd_sc_hd__decap_6 VGND VNB VPB VPWR
.ends

* Black-box entry subcircuit for sky130_ef_sc_hd__decap_12 abstract view
.subckt sky130_ef_sc_hd__decap_12 VPWR VGND VPB VNB
.ends

* Black-box entry subcircuit for sky130_fd_sc_hd__fill_1 abstract view
.subckt sky130_fd_sc_hd__fill_1 VGND VNB VPB VPWR
.ends

* Black-box entry subcircuit for sky130_fd_sc_hd__inv_2 abstract view
.subckt sky130_fd_sc_hd__inv_2 A VGND VNB VPB VPWR Y
.ends

* Black-box entry subcircuit for sky130_fd_sc_hd__tapvpwrvgnd_1 abstract view
.subckt sky130_fd_sc_hd__tapvpwrvgnd_1 VGND VPWR
.ends

* Black-box entry subcircuit for sky130_fd_sc_hd__fill_2 abstract view
.subckt sky130_fd_sc_hd__fill_2 VGND VNB VPB VPWR
.ends

* Black-box entry subcircuit for sky130_fd_sc_hd__buf_2 abstract view
.subckt sky130_fd_sc_hd__buf_2 A VGND VNB VPB VPWR X
.ends

* Black-box entry subcircuit for sky130_fd_sc_hd__and4_2 abstract view
.subckt sky130_fd_sc_hd__and4_2 A B C D VGND VNB VPB VPWR X
.ends

* Black-box entry subcircuit for sky130_fd_sc_hd__decap_4 abstract view
.subckt sky130_fd_sc_hd__decap_4 VGND VNB VPB VPWR
.ends

* Black-box entry subcircuit for sky130_fd_sc_hd__o211a_1 abstract view
.subckt sky130_fd_sc_hd__o211a_1 A1 A2 B1 C1 VGND VNB VPB VPWR X
.ends

* Black-box entry subcircuit for sky130_fd_sc_hd__decap_3 abstract view
.subckt sky130_fd_sc_hd__decap_3 VGND VNB VPB VPWR
.ends

* Black-box entry subcircuit for sky130_fd_sc_hd__nand2_1 abstract view
.subckt sky130_fd_sc_hd__nand2_1 A B VGND VNB VPB VPWR Y
.ends

* Black-box entry subcircuit for sky130_fd_sc_hd__a21oi_1 abstract view
.subckt sky130_fd_sc_hd__a21oi_1 A1 A2 B1 VGND VNB VPB VPWR Y
.ends

* Black-box entry subcircuit for sky130_fd_sc_hd__xor2_2 abstract view
.subckt sky130_fd_sc_hd__xor2_2 A B VGND VNB VPB VPWR X
.ends

* Black-box entry subcircuit for sky130_fd_sc_hd__dlygate4sd3_1 abstract view
.subckt sky130_fd_sc_hd__dlygate4sd3_1 A VGND VNB VPB VPWR X
.ends

* Black-box entry subcircuit for sky130_fd_sc_hd__decap_8 abstract view
.subckt sky130_fd_sc_hd__decap_8 VGND VNB VPB VPWR
.ends

* Black-box entry subcircuit for sky130_fd_sc_hd__dfrtp_1 abstract view
.subckt sky130_fd_sc_hd__dfrtp_1 CLK D RESET_B VGND VNB VPB VPWR Q
.ends

* Black-box entry subcircuit for sky130_fd_sc_hd__clkbuf_1 abstract view
.subckt sky130_fd_sc_hd__clkbuf_1 A VGND VNB VPB VPWR X
.ends

* Black-box entry subcircuit for sky130_fd_sc_hd__a22o_1 abstract view
.subckt sky130_fd_sc_hd__a22o_1 A1 A2 B1 B2 VGND VNB VPB VPWR X
.ends

* Black-box entry subcircuit for sky130_fd_sc_hd__o21a_1 abstract view
.subckt sky130_fd_sc_hd__o21a_1 A1 A2 B1 VGND VNB VPB VPWR X
.ends

* Black-box entry subcircuit for sky130_fd_sc_hd__and2b_1 abstract view
.subckt sky130_fd_sc_hd__and2b_1 A_N B VGND VNB VPB VPWR X
.ends

* Black-box entry subcircuit for sky130_fd_sc_hd__and3_1 abstract view
.subckt sky130_fd_sc_hd__and3_1 A B C VGND VNB VPB VPWR X
.ends

* Black-box entry subcircuit for sky130_fd_sc_hd__mux2_1 abstract view
.subckt sky130_fd_sc_hd__mux2_1 A0 A1 S VGND VNB VPB VPWR X
.ends

* Black-box entry subcircuit for sky130_fd_sc_hd__dfxtp_1 abstract view
.subckt sky130_fd_sc_hd__dfxtp_1 CLK D VGND VNB VPB VPWR Q
.ends

* Black-box entry subcircuit for sky130_fd_sc_hd__dfrtp_4 abstract view
.subckt sky130_fd_sc_hd__dfrtp_4 CLK D RESET_B VGND VNB VPB VPWR Q
.ends

* Black-box entry subcircuit for sky130_fd_sc_hd__and2_1 abstract view
.subckt sky130_fd_sc_hd__and2_1 A B VGND VNB VPB VPWR X
.ends

* Black-box entry subcircuit for sky130_fd_sc_hd__a31o_1 abstract view
.subckt sky130_fd_sc_hd__a31o_1 A1 A2 A3 B1 VGND VNB VPB VPWR X
.ends

* Black-box entry subcircuit for sky130_fd_sc_hd__diode_2 abstract view
.subckt sky130_fd_sc_hd__diode_2 DIODE VGND VNB VPB VPWR
.ends

* Black-box entry subcircuit for sky130_fd_sc_hd__buf_8 abstract view
.subckt sky130_fd_sc_hd__buf_8 A VGND VNB VPB VPWR X
.ends

* Black-box entry subcircuit for sky130_fd_sc_hd__xnor2_1 abstract view
.subckt sky130_fd_sc_hd__xnor2_1 A B VGND VNB VPB VPWR Y
.ends

* Black-box entry subcircuit for sky130_fd_sc_hd__buf_4 abstract view
.subckt sky130_fd_sc_hd__buf_4 A VGND VNB VPB VPWR X
.ends

* Black-box entry subcircuit for sky130_fd_sc_hd__or3b_1 abstract view
.subckt sky130_fd_sc_hd__or3b_1 A B C_N VGND VNB VPB VPWR X
.ends

* Black-box entry subcircuit for sky130_fd_sc_hd__clkbuf_4 abstract view
.subckt sky130_fd_sc_hd__clkbuf_4 A VGND VNB VPB VPWR X
.ends

* Black-box entry subcircuit for sky130_fd_sc_hd__or3_1 abstract view
.subckt sky130_fd_sc_hd__or3_1 A B C VGND VNB VPB VPWR X
.ends

* Black-box entry subcircuit for sky130_fd_sc_hd__o21ba_1 abstract view
.subckt sky130_fd_sc_hd__o21ba_1 A1 A2 B1_N VGND VNB VPB VPWR X
.ends

* Black-box entry subcircuit for sky130_fd_sc_hd__clkbuf_8 abstract view
.subckt sky130_fd_sc_hd__clkbuf_8 A VGND VNB VPB VPWR X
.ends

* Black-box entry subcircuit for sky130_fd_sc_hd__nor3b_1 abstract view
.subckt sky130_fd_sc_hd__nor3b_1 A B C_N VGND VNB VPB VPWR Y
.ends

* Black-box entry subcircuit for sky130_fd_sc_hd__nor2_1 abstract view
.subckt sky130_fd_sc_hd__nor2_1 A B VGND VNB VPB VPWR Y
.ends

* Black-box entry subcircuit for sky130_fd_sc_hd__o21ai_2 abstract view
.subckt sky130_fd_sc_hd__o21ai_2 A1 A2 B1 VGND VNB VPB VPWR Y
.ends

* Black-box entry subcircuit for sky130_fd_sc_hd__a211o_1 abstract view
.subckt sky130_fd_sc_hd__a211o_1 A1 A2 B1 C1 VGND VNB VPB VPWR X
.ends

* Black-box entry subcircuit for sky130_fd_sc_hd__xor2_4 abstract view
.subckt sky130_fd_sc_hd__xor2_4 A B VGND VNB VPB VPWR X
.ends

* Black-box entry subcircuit for sky130_fd_sc_hd__dlygate4sd1_1 abstract view
.subckt sky130_fd_sc_hd__dlygate4sd1_1 A VGND VNB VPB VPWR X
.ends

* Black-box entry subcircuit for sky130_fd_sc_hd__a311o_1 abstract view
.subckt sky130_fd_sc_hd__a311o_1 A1 A2 A3 B1 C1 VGND VNB VPB VPWR X
.ends

* Black-box entry subcircuit for sky130_fd_sc_hd__o21bai_2 abstract view
.subckt sky130_fd_sc_hd__o21bai_2 A1 A2 B1_N VGND VNB VPB VPWR Y
.ends

* Black-box entry subcircuit for sky130_fd_sc_hd__a21oi_2 abstract view
.subckt sky130_fd_sc_hd__a21oi_2 A1 A2 B1 VGND VNB VPB VPWR Y
.ends

* Black-box entry subcircuit for sky130_fd_sc_hd__buf_6 abstract view
.subckt sky130_fd_sc_hd__buf_6 A VGND VNB VPB VPWR X
.ends

* Black-box entry subcircuit for sky130_fd_sc_hd__buf_1 abstract view
.subckt sky130_fd_sc_hd__buf_1 A VGND VNB VPB VPWR X
.ends

* Black-box entry subcircuit for sky130_fd_sc_hd__xor2_1 abstract view
.subckt sky130_fd_sc_hd__xor2_1 A B VGND VNB VPB VPWR X
.ends

* Black-box entry subcircuit for sky130_fd_sc_hd__xnor2_4 abstract view
.subckt sky130_fd_sc_hd__xnor2_4 A B VGND VNB VPB VPWR Y
.ends

* Black-box entry subcircuit for sky130_fd_sc_hd__o21ai_1 abstract view
.subckt sky130_fd_sc_hd__o21ai_1 A1 A2 B1 VGND VNB VPB VPWR Y
.ends

* Black-box entry subcircuit for sky130_fd_sc_hd__o31a_1 abstract view
.subckt sky130_fd_sc_hd__o31a_1 A1 A2 A3 B1 VGND VNB VPB VPWR X
.ends

* Black-box entry subcircuit for sky130_fd_sc_hd__and4_1 abstract view
.subckt sky130_fd_sc_hd__and4_1 A B C D VGND VNB VPB VPWR X
.ends

* Black-box entry subcircuit for sky130_fd_sc_hd__or2_1 abstract view
.subckt sky130_fd_sc_hd__or2_1 A B VGND VNB VPB VPWR X
.ends

* Black-box entry subcircuit for sky130_fd_sc_hd__or2b_1 abstract view
.subckt sky130_fd_sc_hd__or2b_1 A B_N VGND VNB VPB VPWR X
.ends

* Black-box entry subcircuit for sky130_fd_sc_hd__a211o_2 abstract view
.subckt sky130_fd_sc_hd__a211o_2 A1 A2 B1 C1 VGND VNB VPB VPWR X
.ends

* Black-box entry subcircuit for sky130_fd_sc_hd__conb_1 abstract view
.subckt sky130_fd_sc_hd__conb_1 VGND VNB VPB VPWR HI LO
.ends

* Black-box entry subcircuit for sky130_fd_sc_hd__or3_4 abstract view
.subckt sky130_fd_sc_hd__or3_4 A B C VGND VNB VPB VPWR X
.ends

* Black-box entry subcircuit for sky130_fd_sc_hd__a21o_1 abstract view
.subckt sky130_fd_sc_hd__a21o_1 A1 A2 B1 VGND VNB VPB VPWR X
.ends

* Black-box entry subcircuit for sky130_fd_sc_hd__clkbuf_16 abstract view
.subckt sky130_fd_sc_hd__clkbuf_16 A VGND VNB VPB VPWR X
.ends

* Black-box entry subcircuit for sky130_fd_sc_hd__xnor2_2 abstract view
.subckt sky130_fd_sc_hd__xnor2_2 A B VGND VNB VPB VPWR Y
.ends

* Black-box entry subcircuit for sky130_fd_sc_hd__inv_4 abstract view
.subckt sky130_fd_sc_hd__inv_4 A VGND VNB VPB VPWR Y
.ends

* Black-box entry subcircuit for sky130_fd_sc_hd__a31oi_2 abstract view
.subckt sky130_fd_sc_hd__a31oi_2 A1 A2 A3 B1 VGND VNB VPB VPWR Y
.ends

* Black-box entry subcircuit for sky130_fd_sc_hd__or2b_2 abstract view
.subckt sky130_fd_sc_hd__or2b_2 A B_N VGND VNB VPB VPWR X
.ends

* Black-box entry subcircuit for sky130_fd_sc_hd__a2bb2o_1 abstract view
.subckt sky130_fd_sc_hd__a2bb2o_1 A1_N A2_N B1 B2 VGND VNB VPB VPWR X
.ends

* Black-box entry subcircuit for sky130_fd_sc_hd__and3b_1 abstract view
.subckt sky130_fd_sc_hd__and3b_1 A_N B C VGND VNB VPB VPWR X
.ends

* Black-box entry subcircuit for sky130_fd_sc_hd__o21ai_4 abstract view
.subckt sky130_fd_sc_hd__o21ai_4 A1 A2 B1 VGND VNB VPB VPWR Y
.ends

* Black-box entry subcircuit for sky130_fd_sc_hd__and4b_2 abstract view
.subckt sky130_fd_sc_hd__and4b_2 A_N B C D VGND VNB VPB VPWR X
.ends

* Black-box entry subcircuit for sky130_fd_sc_hd__o311a_4 abstract view
.subckt sky130_fd_sc_hd__o311a_4 A1 A2 A3 B1 C1 VGND VNB VPB VPWR X
.ends

* Black-box entry subcircuit for sky130_fd_sc_hd__nand2b_2 abstract view
.subckt sky130_fd_sc_hd__nand2b_2 A_N B VGND VNB VPB VPWR Y
.ends

* Black-box entry subcircuit for sky130_fd_sc_hd__o21a_2 abstract view
.subckt sky130_fd_sc_hd__o21a_2 A1 A2 B1 VGND VNB VPB VPWR X
.ends

* Black-box entry subcircuit for sky130_fd_sc_hd__mux2_4 abstract view
.subckt sky130_fd_sc_hd__mux2_4 A0 A1 S VGND VNB VPB VPWR X
.ends

* Black-box entry subcircuit for sky130_fd_sc_hd__a221o_1 abstract view
.subckt sky130_fd_sc_hd__a221o_1 A1 A2 B1 B2 C1 VGND VNB VPB VPWR X
.ends

* Black-box entry subcircuit for sky130_fd_sc_hd__and4_4 abstract view
.subckt sky130_fd_sc_hd__and4_4 A B C D VGND VNB VPB VPWR X
.ends

* Black-box entry subcircuit for sky130_fd_sc_hd__nand3_4 abstract view
.subckt sky130_fd_sc_hd__nand3_4 A B C VGND VNB VPB VPWR Y
.ends

* Black-box entry subcircuit for sky130_fd_sc_hd__a211o_4 abstract view
.subckt sky130_fd_sc_hd__a211o_4 A1 A2 B1 C1 VGND VNB VPB VPWR X
.ends

* Black-box entry subcircuit for sky130_fd_sc_hd__a21oi_4 abstract view
.subckt sky130_fd_sc_hd__a21oi_4 A1 A2 B1 VGND VNB VPB VPWR Y
.ends

* Black-box entry subcircuit for sky130_fd_sc_hd__nor2_8 abstract view
.subckt sky130_fd_sc_hd__nor2_8 A B VGND VNB VPB VPWR Y
.ends

* Black-box entry subcircuit for sky130_fd_sc_hd__nand4b_4 abstract view
.subckt sky130_fd_sc_hd__nand4b_4 A_N B C D VGND VNB VPB VPWR Y
.ends

* Black-box entry subcircuit for sky130_fd_sc_hd__nor2_4 abstract view
.subckt sky130_fd_sc_hd__nor2_4 A B VGND VNB VPB VPWR Y
.ends

* Black-box entry subcircuit for sky130_fd_sc_hd__a311o_4 abstract view
.subckt sky130_fd_sc_hd__a311o_4 A1 A2 A3 B1 C1 VGND VNB VPB VPWR X
.ends

* Black-box entry subcircuit for sky130_fd_sc_hd__and2_4 abstract view
.subckt sky130_fd_sc_hd__and2_4 A B VGND VNB VPB VPWR X
.ends

* Black-box entry subcircuit for sky130_fd_sc_hd__o2111a_1 abstract view
.subckt sky130_fd_sc_hd__o2111a_1 A1 A2 B1 C1 D1 VGND VNB VPB VPWR X
.ends

* Black-box entry subcircuit for sky130_fd_sc_hd__and4b_1 abstract view
.subckt sky130_fd_sc_hd__and4b_1 A_N B C D VGND VNB VPB VPWR X
.ends

* Black-box entry subcircuit for sky130_fd_sc_hd__dfxtp_4 abstract view
.subckt sky130_fd_sc_hd__dfxtp_4 CLK D VGND VNB VPB VPWR Q
.ends

* Black-box entry subcircuit for sky130_fd_sc_hd__nor3_1 abstract view
.subckt sky130_fd_sc_hd__nor3_1 A B C VGND VNB VPB VPWR Y
.ends

* Black-box entry subcircuit for sky130_fd_sc_hd__nand3_1 abstract view
.subckt sky130_fd_sc_hd__nand3_1 A B C VGND VNB VPB VPWR Y
.ends

* Black-box entry subcircuit for sky130_fd_sc_hd__dfrtp_2 abstract view
.subckt sky130_fd_sc_hd__dfrtp_2 CLK D RESET_B VGND VNB VPB VPWR Q
.ends

* Black-box entry subcircuit for sky130_fd_sc_hd__nand2_2 abstract view
.subckt sky130_fd_sc_hd__nand2_2 A B VGND VNB VPB VPWR Y
.ends

* Black-box entry subcircuit for sky130_fd_sc_hd__and3b_2 abstract view
.subckt sky130_fd_sc_hd__and3b_2 A_N B C VGND VNB VPB VPWR X
.ends

* Black-box entry subcircuit for sky130_fd_sc_hd__a211oi_1 abstract view
.subckt sky130_fd_sc_hd__a211oi_1 A1 A2 B1 C1 VGND VNB VPB VPWR Y
.ends

* Black-box entry subcircuit for sky130_fd_sc_hd__o31a_4 abstract view
.subckt sky130_fd_sc_hd__o31a_4 A1 A2 A3 B1 VGND VNB VPB VPWR X
.ends

* Black-box entry subcircuit for sky130_fd_sc_hd__or2_4 abstract view
.subckt sky130_fd_sc_hd__or2_4 A B VGND VNB VPB VPWR X
.ends

* Black-box entry subcircuit for sky130_fd_sc_hd__o21a_4 abstract view
.subckt sky130_fd_sc_hd__o21a_4 A1 A2 B1 VGND VNB VPB VPWR X
.ends

* Black-box entry subcircuit for sky130_fd_sc_hd__and3_2 abstract view
.subckt sky130_fd_sc_hd__and3_2 A B C VGND VNB VPB VPWR X
.ends

* Black-box entry subcircuit for sky130_fd_sc_hd__o2bb2a_1 abstract view
.subckt sky130_fd_sc_hd__o2bb2a_1 A1_N A2_N B1 B2 VGND VNB VPB VPWR X
.ends

* Black-box entry subcircuit for sky130_fd_sc_hd__dfstp_4 abstract view
.subckt sky130_fd_sc_hd__dfstp_4 CLK D SET_B VGND VNB VPB VPWR Q
.ends

* Black-box entry subcircuit for sky130_fd_sc_hd__mux2_2 abstract view
.subckt sky130_fd_sc_hd__mux2_2 A0 A1 S VGND VNB VPB VPWR X
.ends

* Black-box entry subcircuit for sky130_fd_sc_hd__or2_2 abstract view
.subckt sky130_fd_sc_hd__or2_2 A B VGND VNB VPB VPWR X
.ends

* Black-box entry subcircuit for sky130_fd_sc_hd__a211oi_2 abstract view
.subckt sky130_fd_sc_hd__a211oi_2 A1 A2 B1 C1 VGND VNB VPB VPWR Y
.ends

* Black-box entry subcircuit for sky130_fd_sc_hd__o211ai_1 abstract view
.subckt sky130_fd_sc_hd__o211ai_1 A1 A2 B1 C1 VGND VNB VPB VPWR Y
.ends

* Black-box entry subcircuit for sky130_fd_sc_hd__o21bai_1 abstract view
.subckt sky130_fd_sc_hd__o21bai_1 A1 A2 B1_N VGND VNB VPB VPWR Y
.ends

* Black-box entry subcircuit for sky130_fd_sc_hd__a221o_2 abstract view
.subckt sky130_fd_sc_hd__a221o_2 A1 A2 B1 B2 C1 VGND VNB VPB VPWR X
.ends

* Black-box entry subcircuit for sky130_fd_sc_hd__inv_6 abstract view
.subckt sky130_fd_sc_hd__inv_6 A VGND VNB VPB VPWR Y
.ends

* Black-box entry subcircuit for sky130_fd_sc_hd__nor2_2 abstract view
.subckt sky130_fd_sc_hd__nor2_2 A B VGND VNB VPB VPWR Y
.ends

* Black-box entry subcircuit for sky130_fd_sc_hd__a21boi_4 abstract view
.subckt sky130_fd_sc_hd__a21boi_4 A1 A2 B1_N VGND VNB VPB VPWR Y
.ends

* Black-box entry subcircuit for sky130_fd_sc_hd__or4b_4 abstract view
.subckt sky130_fd_sc_hd__or4b_4 A B C D_N VGND VNB VPB VPWR X
.ends

* Black-box entry subcircuit for sky130_fd_sc_hd__or3b_4 abstract view
.subckt sky130_fd_sc_hd__or3b_4 A B C_N VGND VNB VPB VPWR X
.ends

* Black-box entry subcircuit for sky130_fd_sc_hd__a21bo_1 abstract view
.subckt sky130_fd_sc_hd__a21bo_1 A1 A2 B1_N VGND VNB VPB VPWR X
.ends

* Black-box entry subcircuit for sky130_fd_sc_hd__a21boi_1 abstract view
.subckt sky130_fd_sc_hd__a21boi_1 A1 A2 B1_N VGND VNB VPB VPWR Y
.ends

* Black-box entry subcircuit for sky130_fd_sc_hd__clkbuf_2 abstract view
.subckt sky130_fd_sc_hd__clkbuf_2 A VGND VNB VPB VPWR X
.ends

.subckt cpu_top VGND VPWR clk dbg_alu[0] dbg_alu[10] dbg_alu[11] dbg_alu[12] dbg_alu[13]
+ dbg_alu[14] dbg_alu[15] dbg_alu[16] dbg_alu[17] dbg_alu[18] dbg_alu[19] dbg_alu[1]
+ dbg_alu[20] dbg_alu[21] dbg_alu[22] dbg_alu[23] dbg_alu[24] dbg_alu[25] dbg_alu[26]
+ dbg_alu[27] dbg_alu[28] dbg_alu[29] dbg_alu[2] dbg_alu[30] dbg_alu[31] dbg_alu[3]
+ dbg_alu[4] dbg_alu[5] dbg_alu[6] dbg_alu[7] dbg_alu[8] dbg_alu[9] dbg_instr[0] dbg_instr[12]
+ dbg_instr[13] dbg_instr[14] dbg_instr[15] dbg_instr[16] dbg_instr[17] dbg_instr[18]
+ dbg_instr[19] dbg_instr[1] dbg_instr[20] dbg_instr[21] dbg_instr[22] dbg_instr[23]
+ dbg_instr[24] dbg_instr[25] dbg_instr[26] dbg_instr[27] dbg_instr[28] dbg_instr[2]
+ dbg_instr[30] dbg_instr[31] dbg_instr[3] dbg_instr[4] dbg_instr[5] dbg_mem_addr[0]
+ dbg_mem_addr[10] dbg_mem_addr[11] dbg_mem_addr[12] dbg_mem_addr[13] dbg_mem_addr[14]
+ dbg_mem_addr[15] dbg_mem_addr[16] dbg_mem_addr[17] dbg_mem_addr[18] dbg_mem_addr[19]
+ dbg_mem_addr[1] dbg_mem_addr[20] dbg_mem_addr[21] dbg_mem_addr[22] dbg_mem_addr[23]
+ dbg_mem_addr[24] dbg_mem_addr[25] dbg_mem_addr[26] dbg_mem_addr[27] dbg_mem_addr[28]
+ dbg_mem_addr[29] dbg_mem_addr[2] dbg_mem_addr[30] dbg_mem_addr[31] dbg_mem_addr[3]
+ dbg_mem_addr[4] dbg_mem_addr[5] dbg_mem_addr[6] dbg_mem_addr[7] dbg_mem_addr[8]
+ dbg_mem_addr[9] dbg_memread dbg_memwrite dbg_pc[10] dbg_pc[11] dbg_pc[12] dbg_pc[13]
+ dbg_pc[14] dbg_pc[15] dbg_pc[16] dbg_pc[17] dbg_pc[18] dbg_pc[19] dbg_pc[20] dbg_pc[21]
+ dbg_pc[22] dbg_pc[23] dbg_pc[24] dbg_pc[25] dbg_pc[26] dbg_pc[27] dbg_pc[28] dbg_pc[29]
+ dbg_pc[2] dbg_pc[30] dbg_pc[31] dbg_pc[3] dbg_pc[4] dbg_pc[5] dbg_pc[6] dbg_pc[7]
+ dbg_pc[8] dbg_pc[9] dbg_wb[0] dbg_wb[10] dbg_wb[11] dbg_wb[12] dbg_wb[13] dbg_wb[14]
+ dbg_wb[15] dbg_wb[16] dbg_wb[17] dbg_wb[18] dbg_wb[19] dbg_wb[1] dbg_wb[20] dbg_wb[21]
+ dbg_wb[22] dbg_wb[23] dbg_wb[24] dbg_wb[25] dbg_wb[26] dbg_wb[27] dbg_wb[28] dbg_wb[29]
+ dbg_wb[2] dbg_wb[30] dbg_wb[31] dbg_wb[3] dbg_wb[4] dbg_wb[5] dbg_wb[6] dbg_wb[7]
+ dbg_wb[8] dbg_wb[9] dbg_wb_rd[0] dbg_wb_rd[1] dbg_wb_rd[2] dbg_wb_rd[3] dbg_wb_we
+ rst dbg_instr[7] dbg_instr[6] dbg_pc[0] dbg_instr[29] dbg_instr[11] dbg_instr[10]
+ dbg_wb_rd[4] dbg_instr[9] dbg_instr[8] dbg_pc[1]
XFILLER_0_281_665 VGND VGND VPWR VPWR sky130_fd_sc_hd__decap_6
XFILLER_0_236_1309 VGND VGND VPWR VPWR sky130_fd_sc_hd__decap_6
XFILLER_0_94_77 VGND VGND VPWR VPWR sky130_fd_sc_hd__decap_6
XFILLER_0_280_153 VPWR VGND VPWR VGND sky130_ef_sc_hd__decap_12
XFILLER_0_275_1369 VPWR VGND VPWR VGND sky130_ef_sc_hd__decap_12
XFILLER_0_59_1231 VGND VGND VPWR VPWR sky130_fd_sc_hd__fill_1
XFILLER_0_241_529 VPWR VGND VPWR VGND sky130_ef_sc_hd__decap_12
XFILLER_0_74_1707 VGND VGND VPWR VPWR sky130_fd_sc_hd__fill_1
XFILLER_0_253_1623 VGND VGND VPWR VPWR sky130_fd_sc_hd__fill_1
XFILLER_0_234_581 VGND VGND VPWR VPWR sky130_fd_sc_hd__decap_6
XFILLER_0_280_197 VPWR VGND VPWR VGND sky130_ef_sc_hd__decap_12
XFILLER_0_171_1301 VPWR VGND VPWR VGND sky130_ef_sc_hd__decap_12
XFILLER_0_136_1421 VGND VGND VPWR VPWR sky130_fd_sc_hd__decap_6
XFILLER_0_175_1481 VPWR VGND VPWR VGND sky130_ef_sc_hd__decap_12
X_2106_ _0766_ VGND VGND VPWR VPWR _0156_ sky130_fd_sc_hd__inv_2
XFILLER_0_27_93 VPWR VGND VPWR VGND sky130_ef_sc_hd__decap_12
XFILLER_0_210_905 VPWR VGND VPWR VGND sky130_ef_sc_hd__decap_12
XFILLER_0_89_461 VPWR VGND VPWR VGND sky130_ef_sc_hd__decap_12
XFILLER_0_171_1345 VPWR VGND VPWR VGND sky130_ef_sc_hd__decap_12
XFILLER_0_167_809 VPWR VGND VPWR VGND sky130_ef_sc_hd__decap_12
XFILLER_0_136_1465 VPWR VGND VPWR VGND sky130_ef_sc_hd__decap_12
X_2037_ _0759_ VGND VGND VPWR VPWR _0094_ sky130_fd_sc_hd__inv_2
XFILLER_0_210_949 VPWR VGND VPWR VGND sky130_ef_sc_hd__decap_12
XFILLER_0_132_1329 VPWR VGND VPWR VGND sky130_ef_sc_hd__decap_12
XFILLER_0_72_1453 VPWR VGND VPWR VGND sky130_ef_sc_hd__decap_12
XFILLER_0_193_105 VGND VGND VPWR VPWR sky130_fd_sc_hd__decap_6
XFILLER_0_76_133 VGND VGND VPWR VPWR sky130_fd_sc_hd__decap_6
XFILLER_0_134_83 VGND VGND VPWR VPWR sky130_fd_sc_hd__fill_1
XFILLER_0_33_1437 VPWR VGND VPWR VGND sky130_ef_sc_hd__decap_12
XFILLER_0_212_1353 VPWR VGND VPWR VGND sky130_ef_sc_hd__decap_12
XFILLER_0_147_533 VGND VGND VPWR VPWR sky130_fd_sc_hd__fill_1
XFILLER_0_72_1497 VPWR VGND VPWR VGND sky130_ef_sc_hd__decap_12
XFILLER_0_193_149 VPWR VGND VPWR VGND sky130_ef_sc_hd__decap_12
XFILLER_0_159_393 VPWR VGND VPWR VGND sky130_ef_sc_hd__decap_12
XFILLER_0_18_701 VPWR VGND VPWR VGND sky130_ef_sc_hd__decap_12
XFILLER_0_43_81 VPWR VGND VPWR VGND sky130_ef_sc_hd__decap_12
XFILLER_0_58_881 VPWR VGND VPWR VGND sky130_ef_sc_hd__decap_12
XFILLER_0_76_177 VPWR VGND VPWR VGND sky130_ef_sc_hd__decap_12
XFILLER_0_175_864 VPWR VGND VPWR VGND sky130_ef_sc_hd__decap_12
XFILLER_0_92_637 VGND VGND VPWR VPWR sky130_fd_sc_hd__decap_6
XFILLER_0_212_1397 VPWR VGND VPWR VGND sky130_ef_sc_hd__decap_12
XFILLER_0_130_1064 VPWR VGND VPWR VGND sky130_ef_sc_hd__decap_12
XFILLER_0_91_125 VPWR VGND VPWR VGND sky130_ef_sc_hd__decap_12
XFILLER_0_174_363 VGND VGND VPWR VPWR sky130_fd_sc_hd__fill_1
XFILLER_0_57_391 VGND VGND VPWR VPWR sky130_fd_sc_hd__fill_1
XFILLER_0_175_897 VPWR VGND VPWR VGND sky130_ef_sc_hd__decap_12
XFILLER_0_119_279 VGND VGND VPWR VPWR sky130_fd_sc_hd__fill_1
XFILLER_0_162_525 VGND VGND VPWR VPWR sky130_fd_sc_hd__decap_6
XFILLER_0_45_553 VGND VGND VPWR VPWR sky130_fd_sc_hd__decap_6
XFILLER_0_282_1329 VPWR VGND VPWR VGND sky130_ef_sc_hd__decap_12
XFILLER_0_247_1449 VGND VGND VPWR VPWR sky130_fd_sc_hd__decap_6
XFILLER_0_91_169 VPWR VGND VPWR VGND sky130_ef_sc_hd__decap_12
XFILLER_0_60_501 VPWR VGND VPWR VGND sky130_ef_sc_hd__decap_12
XFILLER_0_190_867 VGND VGND VPWR VPWR sky130_fd_sc_hd__fill_1
XFILLER_0_73_895 VGND VGND VPWR VPWR sky130_fd_sc_hd__fill_1
XFILLER_0_162_569 VPWR VGND VPWR VGND sky130_ef_sc_hd__decap_12
XFILLER_0_115_441 VGND VGND VPWR VPWR sky130_fd_sc_hd__decap_6
XFILLER_0_45_597 VPWR VGND VPWR VGND sky130_ef_sc_hd__decap_12
XFILLER_0_182_1441 VPWR VGND VPWR VGND sky130_ef_sc_hd__decap_12
XFILLER_0_147_1561 VGND VGND VPWR VPWR sky130_fd_sc_hd__decap_6
XFILLER_0_60_545 VPWR VGND VPWR VGND sky130_ef_sc_hd__decap_12
XTAP_8906 VGND VPWR sky130_fd_sc_hd__tapvpwrvgnd_1
XTAP_8917 VGND VPWR sky130_fd_sc_hd__tapvpwrvgnd_1
XFILLER_0_115_485 VPWR VGND VPWR VGND sky130_ef_sc_hd__decap_12
XTAP_8928 VGND VPWR sky130_fd_sc_hd__tapvpwrvgnd_1
XTAP_8939 VGND VPWR sky130_fd_sc_hd__tapvpwrvgnd_1
XFILLER_0_249_629 VPWR VGND VPWR VGND sky130_ef_sc_hd__decap_12
XFILLER_0_143_1425 VPWR VGND VPWR VGND sky130_ef_sc_hd__decap_12
XFILLER_0_14_973 VGND VGND VPWR VPWR sky130_fd_sc_hd__decap_6
XFILLER_0_182_1485 VPWR VGND VPWR VGND sky130_ef_sc_hd__decap_12
XFILLER_0_130_433 VPWR VGND VPWR VGND sky130_ef_sc_hd__decap_12
XFILLER_0_60_589 VPWR VGND VPWR VGND sky130_ef_sc_hd__decap_12
XFILLER_0_13_461 VPWR VGND VPWR VGND sky130_ef_sc_hd__decap_12
XFILLER_0_44_1533 VGND VGND VPWR VPWR sky130_fd_sc_hd__decap_6
XFILLER_0_104_1409 VPWR VGND VPWR VGND sky130_ef_sc_hd__decap_12
XFILLER_0_248_139 VGND VGND VPWR VPWR sky130_fd_sc_hd__fill_1
XFILLER_0_83_1593 VPWR VGND VPWR VGND sky130_ef_sc_hd__decap_12
XFILLER_0_143_1469 VPWR VGND VPWR VGND sky130_ef_sc_hd__decap_12
XFILLER_0_108_1589 VGND VGND VPWR VPWR sky130_fd_sc_hd__decap_6
XFILLER_0_130_477 VPWR VGND VPWR VGND sky130_ef_sc_hd__decap_12
XFILLER_0_7_81 VPWR VGND VPWR VGND sky130_ef_sc_hd__decap_12
XFILLER_0_229_39 VPWR VGND VPWR VGND sky130_ef_sc_hd__decap_12
XFILLER_0_44_1577 VPWR VGND VPWR VGND sky130_ef_sc_hd__decap_12
XFILLER_0_223_1493 VPWR VGND VPWR VGND sky130_ef_sc_hd__decap_12
XFILLER_0_257_673 VPWR VGND VPWR VGND sky130_ef_sc_hd__decap_12
XFILLER_0_285_993 VPWR VGND VPWR VGND sky130_ef_sc_hd__decap_12
XFILLER_0_244_301 VGND VGND VPWR VPWR sky130_fd_sc_hd__decap_6
XFILLER_0_99_1033 VPWR VGND VPWR VGND sky130_ef_sc_hd__decap_12
XFILLER_0_272_643 VGND VGND VPWR VPWR sky130_fd_sc_hd__fill_1
XFILLER_0_217_559 VGND VGND VPWR VPWR sky130_fd_sc_hd__fill_1
XFILLER_0_99_1077 VPWR VGND VPWR VGND sky130_ef_sc_hd__decap_12
XFILLER_0_244_345 VPWR VGND VPWR VGND sky130_ef_sc_hd__decap_12
XFILLER_0_260_805 VGND VGND VPWR VPWR sky130_fd_sc_hd__decap_6
XFILLER_0_254_1409 VPWR VGND VPWR VGND sky130_ef_sc_hd__decap_12
XFILLER_0_258_1589 VGND VGND VPWR VPWR sky130_fd_sc_hd__decap_6
XFILLER_0_204_209 VPWR VGND VPWR VGND sky130_ef_sc_hd__decap_12
XFILLER_0_244_389 VPWR VGND VPWR VGND sky130_ef_sc_hd__decap_12
XTAP_3202 VGND VPWR sky130_fd_sc_hd__tapvpwrvgnd_1
XFILLER_0_99_225 VPWR VGND VPWR VGND sky130_ef_sc_hd__decap_12
XFILLER_0_260_849 VPWR VGND VPWR VGND sky130_ef_sc_hd__decap_12
XFILLER_0_213_721 VGND VGND VPWR VPWR sky130_fd_sc_hd__decap_6
XTAP_3213 VGND VPWR sky130_fd_sc_hd__tapvpwrvgnd_1
XFILLER_0_198_923 VGND VGND VPWR VPWR sky130_fd_sc_hd__fill_1
XFILLER_0_38_1315 VGND VGND VPWR VPWR sky130_fd_sc_hd__fill_1
XTAP_3224 VGND VPWR sky130_fd_sc_hd__tapvpwrvgnd_1
XFILLER_0_217_1231 VGND VGND VPWR VPWR sky130_fd_sc_hd__fill_1
XFILLER_0_154_1521 VPWR VGND VPWR VGND sky130_ef_sc_hd__decap_12
XTAP_3235 VGND VPWR sky130_fd_sc_hd__tapvpwrvgnd_1
XFILLER_0_193_1581 VPWR VGND VPWR VGND sky130_ef_sc_hd__decap_12
XFILLER_0_169_113 VPWR VGND VPWR VGND sky130_ef_sc_hd__decap_12
XTAP_2501 VGND VPWR sky130_fd_sc_hd__tapvpwrvgnd_1
XFILLER_0_232_1707 VGND VGND VPWR VPWR sky130_fd_sc_hd__fill_1
XTAP_3246 VGND VPWR sky130_fd_sc_hd__tapvpwrvgnd_1
XFILLER_0_213_765 VPWR VGND VPWR VGND sky130_ef_sc_hd__decap_12
XTAP_2512 VGND VPWR sky130_fd_sc_hd__tapvpwrvgnd_1
XFILLER_0_68_601 VPWR VGND VPWR VGND sky130_ef_sc_hd__decap_12
XTAP_3257 VGND VPWR sky130_fd_sc_hd__tapvpwrvgnd_1
XFILLER_0_115_1505 VGND VGND VPWR VPWR sky130_fd_sc_hd__decap_6
XTAP_2523 VGND VPWR sky130_fd_sc_hd__tapvpwrvgnd_1
XTAP_3268 VGND VPWR sky130_fd_sc_hd__tapvpwrvgnd_1
XFILLER_0_212_253 VPWR VGND VPWR VGND sky130_ef_sc_hd__decap_12
XFILLER_0_154_1565 VPWR VGND VPWR VGND sky130_ef_sc_hd__decap_12
XTAP_2534 VGND VPWR sky130_fd_sc_hd__tapvpwrvgnd_1
XTAP_3279 VGND VPWR sky130_fd_sc_hd__tapvpwrvgnd_1
XTAP_1800 VGND VPWR sky130_fd_sc_hd__tapvpwrvgnd_1
XTAP_2545 VGND VPWR sky130_fd_sc_hd__tapvpwrvgnd_1
XFILLER_0_185_617 VPWR VGND VPWR VGND sky130_ef_sc_hd__decap_12
XTAP_1811 VGND VPWR sky130_fd_sc_hd__tapvpwrvgnd_1
XTAP_2556 VGND VPWR sky130_fd_sc_hd__tapvpwrvgnd_1
XFILLER_0_67_111 VGND VGND VPWR VPWR sky130_fd_sc_hd__fill_1
XFILLER_0_261_15 VPWR VGND VPWR VGND sky130_ef_sc_hd__decap_12
XFILLER_0_150_1429 VPWR VGND VPWR VGND sky130_ef_sc_hd__decap_12
XTAP_1822 VGND VPWR sky130_fd_sc_hd__tapvpwrvgnd_1
XFILLER_0_55_1673 VGND VGND VPWR VPWR sky130_fd_sc_hd__decap_6
XFILLER_0_68_645 VPWR VGND VPWR VGND sky130_ef_sc_hd__decap_12
XFILLER_0_90_1553 VPWR VGND VPWR VGND sky130_ef_sc_hd__decap_12
XFILLER_0_115_1549 VPWR VGND VPWR VGND sky130_ef_sc_hd__decap_12
XFILLER_0_36_1061 VPWR VGND VPWR VGND sky130_ef_sc_hd__decap_12
XTAP_2567 VGND VPWR sky130_fd_sc_hd__tapvpwrvgnd_1
XFILLER_0_189_1617 VGND VGND VPWR VPWR sky130_fd_sc_hd__decap_6
XTAP_1833 VGND VPWR sky130_fd_sc_hd__tapvpwrvgnd_1
XTAP_2578 VGND VPWR sky130_fd_sc_hd__tapvpwrvgnd_1
XTAP_1844 VGND VPWR sky130_fd_sc_hd__tapvpwrvgnd_1
XTAP_2589 VGND VPWR sky130_fd_sc_hd__tapvpwrvgnd_1
XTAP_1855 VGND VPWR sky130_fd_sc_hd__tapvpwrvgnd_1
XFILLER_0_51_1537 VPWR VGND VPWR VGND sky130_ef_sc_hd__decap_12
XFILLER_0_230_1453 VPWR VGND VPWR VGND sky130_ef_sc_hd__decap_12
XFILLER_0_138_533 VPWR VGND VPWR VGND sky130_ef_sc_hd__decap_12
XTAP_1866 VGND VPWR sky130_fd_sc_hd__tapvpwrvgnd_1
XFILLER_0_83_615 VGND VGND VPWR VPWR sky130_fd_sc_hd__fill_1
XFILLER_0_90_1597 VPWR VGND VPWR VGND sky130_ef_sc_hd__decap_12
XFILLER_0_3_1313 VPWR VGND VPWR VGND sky130_ef_sc_hd__decap_12
XFILLER_0_55_317 VPWR VGND VPWR VGND sky130_ef_sc_hd__decap_12
XFILLER_0_7_1493 VPWR VGND VPWR VGND sky130_ef_sc_hd__decap_12
XTAP_1877 VGND VPWR sky130_fd_sc_hd__tapvpwrvgnd_1
XTAP_1888 VGND VPWR sky130_fd_sc_hd__tapvpwrvgnd_1
XFILLER_0_95_497 VGND VGND VPWR VPWR sky130_fd_sc_hd__decap_6
XTAP_1899 VGND VPWR sky130_fd_sc_hd__tapvpwrvgnd_1
XFILLER_0_265_1505 VGND VGND VPWR VPWR sky130_fd_sc_hd__decap_6
XFILLER_0_230_1497 VPWR VGND VPWR VGND sky130_ef_sc_hd__decap_12
XFILLER_0_153_503 VGND VGND VPWR VPWR sky130_fd_sc_hd__fill_1
XFILLER_0_125_205 VPWR VGND VPWR VGND sky130_ef_sc_hd__decap_12
XFILLER_0_3_1357 VPWR VGND VPWR VGND sky130_ef_sc_hd__decap_12
XFILLER_0_36_531 VGND VGND VPWR VPWR sky130_fd_sc_hd__fill_1
XFILLER_0_165_385 VGND VGND VPWR VPWR sky130_fd_sc_hd__decap_6
XFILLER_0_70_309 VPWR VGND VPWR VGND sky130_ef_sc_hd__decap_12
XFILLER_0_265_1549 VPWR VGND VPWR VGND sky130_ef_sc_hd__decap_12
XFILLER_0_180_333 VPWR VGND VPWR VGND sky130_ef_sc_hd__decap_12
XFILLER_0_125_249 VPWR VGND VPWR VGND sky130_ef_sc_hd__decap_12
XFILLER_0_63_361 VPWR VGND VPWR VGND sky130_ef_sc_hd__decap_12
XFILLER_0_107_953 VGND VGND VPWR VPWR sky130_fd_sc_hd__fill_2
XFILLER_0_181_889 VGND VGND VPWR VPWR sky130_fd_sc_hd__decap_6
XFILLER_0_24_737 VPWR VGND VPWR VGND sky130_ef_sc_hd__decap_12
XFILLER_0_3_609 VGND VGND VPWR VPWR sky130_fd_sc_hd__decap_6
Xrebuffer7 _1003_ VGND VGND VPWR VPWR net181 sky130_fd_sc_hd__buf_2
XFILLER_0_23_225 VPWR VGND VPWR VGND sky130_ef_sc_hd__decap_12
XFILLER_0_180_377 VPWR VGND VPWR VGND sky130_ef_sc_hd__decap_12
XFILLER_0_49_1455 VGND VGND VPWR VPWR sky130_fd_sc_hd__fill_1
XFILLER_0_268_905 VPWR VGND VPWR VGND sky130_ef_sc_hd__decap_12
XFILLER_0_228_1371 VGND VGND VPWR VPWR sky130_fd_sc_hd__fill_1
XFILLER_0_210_41 VPWR VGND VPWR VGND sky130_ef_sc_hd__decap_12
XFILLER_0_165_1661 VPWR VGND VPWR VGND sky130_ef_sc_hd__decap_12
XFILLER_0_161_1525 VPWR VGND VPWR VGND sky130_ef_sc_hd__decap_12
XFILLER_0_133_293 VPWR VGND VPWR VGND sky130_ef_sc_hd__decap_12
XFILLER_0_126_1645 VGND VGND VPWR VPWR sky130_fd_sc_hd__decap_6
XFILLER_0_268_949 VPWR VGND VPWR VGND sky130_ef_sc_hd__decap_12
XFILLER_0_210_85 VPWR VGND VPWR VGND sky130_ef_sc_hd__decap_12
XFILLER_0_107_1033 VPWR VGND VPWR VGND sky130_ef_sc_hd__decap_12
XFILLER_0_146_1093 VPWR VGND VPWR VGND sky130_ef_sc_hd__decap_12
XFILLER_0_32_781 VPWR VGND VPWR VGND sky130_ef_sc_hd__decap_12
XFILLER_0_122_1509 VPWR VGND VPWR VGND sky130_ef_sc_hd__decap_12
XFILLER_0_62_1633 VPWR VGND VPWR VGND sky130_ef_sc_hd__decap_12
XFILLER_0_161_1569 VPWR VGND VPWR VGND sky130_ef_sc_hd__decap_12
XFILLER_0_43_1021 VPWR VGND VPWR VGND sky130_ef_sc_hd__decap_12
XFILLER_0_126_1689 VPWR VGND VPWR VGND sky130_ef_sc_hd__decap_12
XFILLER_0_48_15 VPWR VGND VPWR VGND sky130_ef_sc_hd__decap_12
XFILLER_0_107_1077 VPWR VGND VPWR VGND sky130_ef_sc_hd__decap_12
XFILLER_0_23_1617 VGND VGND VPWR VPWR sky130_fd_sc_hd__decap_6
XFILLER_0_254_109 VPWR VGND VPWR VGND sky130_ef_sc_hd__decap_12
XFILLER_0_202_1533 VGND VGND VPWR VPWR sky130_fd_sc_hd__decap_6
XFILLER_0_62_1677 VPWR VGND VPWR VGND sky130_ef_sc_hd__decap_12
XFILLER_0_241_1593 VPWR VGND VPWR VGND sky130_ef_sc_hd__decap_12